<?xml version="1.0" encoding="UTF-8"?>

<!-- generated on 2024-10-13 19:29:54 by Eclipse SUMO netedit Version 1.20.0
<configuration xmlns:xsi="http://www.w3.org/2001/XMLSchema-instance" xsi:noNamespaceSchemaLocation="http://sumo.dlr.de/xsd/neteditConfiguration.xsd">

    <input>
        <sumocfg-file value="C:\Users\Admin\Documents\AAU\1 ano\1 semestre\Project\Projeto 1.1\testing5.sumocfg"/>
        <additional-files value=""/>
        <route-files value="C:\Users\Admin\Sumo\2024-10-13-19-02-53\osm.passenger.trips.xml"/>
        <sumo-net-file value="C:\Users\Admin\Documents\AAU\1 ano\1 semestre\Project\Projeto 1.1\testing6.net.xml"/>
    </input>

    <output>
        <output-file value="C:\Users\Admin\Documents\AAU\1 ano\1 semestre\Project\Projeto 1.1\testing6.net.xml"/>
        <output.street-names value="true"/>
    </output>

    <processing>
        <geometry.min-radius.fix.railways value="false"/>
        <geometry.max-grade.fix value="false"/>
        <offset.disable-normalization value="true"/>
        <lefthand value="0"/>
    </processing>

    <junctions>
        <no-turnarounds value="true"/>
        <junctions.corner-detail value="5"/>
        <junctions.limit-turn-speed value="5.50"/>
        <rectangular-lane-cut value="0"/>
    </junctions>

    <pedestrian>
        <walkingareas value="0"/>
    </pedestrian>

    <netedit>
        <ignore.routeelements value="false"/>
    </netedit>

</configuration>
-->

<net version="1.20" junctionCornerDetail="5" limitTurnSpeed="5.50" xmlns:xsi="http://www.w3.org/2001/XMLSchema-instance" xsi:noNamespaceSchemaLocation="http://sumo.dlr.de/xsd/net_file.xsd">

    <location netOffset="-344409.83,-6169452.56" convBoundary="48.65,113.62,441.46,290.03" origBoundary="12.527421,55.644633,12.536445,55.649999" projParameter="+proj=utm +zone=33 +ellps=WGS84 +datum=WGS84 +units=m +no_defs"/>

    <type id="highway.residential" priority="3" numLanes="1" speed="13.89" disallow="tram rail_urban rail rail_electric rail_fast ship container cable_car subway aircraft wheelchair scooter drone" oneway="0"/>

    <edge id=":17546842_0" function="internal">
        <lane id=":17546842_0_0" index="0" disallow="tram rail_urban rail rail_electric rail_fast ship container cable_car subway aircraft wheelchair scooter drone" speed="11.11" length="14.42" shape="103.11,247.31 88.79,245.57"/>
    </edge>
    <edge id=":17546842_1" function="internal">
        <lane id=":17546842_1_0" index="0" disallow="tram rail_urban rail rail_electric rail_fast ship container cable_car subway aircraft wheelchair scooter drone" speed="8.00" length="14.20" shape="103.11,247.31 99.35,246.31 96.81,244.34 95.51,241.41 95.43,237.52"/>
    </edge>
    <edge id=":17546842_2" function="internal">
        <lane id=":17546842_2_0" index="0" disallow="tram rail_urban rail rail_electric rail_fast ship container cable_car subway aircraft wheelchair scooter drone" speed="3.65" length="4.67" shape="103.11,247.31 102.01,246.37 101.71,245.53 102.20,244.79 103.49,244.13"/>
    </edge>
    <edge id=":17546842_3" function="internal">
        <lane id=":17546842_3_0" index="0" disallow="tram rail_urban rail rail_electric rail_fast ship container cable_car subway aircraft wheelchair scooter drone" speed="6.50" length="9.03" shape="98.60,237.91 98.65,240.38 99.48,242.25 101.10,243.50 103.49,244.13"/>
    </edge>
    <edge id=":17546842_4" function="internal">
        <lane id=":17546842_4_0" index="0" disallow="tram rail_urban rail rail_electric rail_fast ship container cable_car subway aircraft wheelchair scooter drone" speed="8.00" length="14.20" shape="98.60,237.91 97.59,241.67 95.62,244.20 92.68,245.50 88.79,245.57"/>
    </edge>
    <edge id=":17546842_5" function="internal">
        <lane id=":17546842_5_0" index="0" disallow="tram rail_urban rail rail_electric rail_fast ship container cable_car subway aircraft wheelchair scooter drone" speed="3.65" length="4.67" shape="98.60,237.91 97.66,239.00 96.82,239.30 96.08,238.81 95.43,237.52"/>
    </edge>
    <edge id=":17546842_6" function="internal">
        <lane id=":17546842_6_0" index="0" disallow="tram rail_urban rail rail_electric rail_fast ship container cable_car subway aircraft wheelchair scooter drone" speed="6.50" length="9.04" shape="89.19,242.39 91.66,242.35 93.53,241.52 94.78,239.91 95.43,237.52"/>
    </edge>
    <edge id=":17546842_7" function="internal">
        <lane id=":17546842_7_0" index="0" disallow="tram rail_urban rail rail_electric rail_fast ship container cable_car subway aircraft wheelchair scooter drone" speed="11.11" length="14.41" shape="89.19,242.39 103.49,244.13"/>
    </edge>
    <edge id=":17546842_8" function="internal">
        <lane id=":17546842_8_0" index="0" disallow="tram rail_urban rail rail_electric rail_fast ship container cable_car subway aircraft wheelchair scooter drone" speed="3.65" length="4.67" shape="89.19,242.39 90.28,243.34 90.58,244.18 90.08,244.92 88.79,245.57"/>
    </edge>
    <edge id=":17546846_0" function="internal">
        <lane id=":17546846_0_0" index="0" disallow="tram rail_urban rail rail_electric rail_fast ship container cable_car subway aircraft wheelchair scooter drone" speed="6.13" length="6.50" shape="392.92,289.24 391.59,290.35 390.17,290.88 388.65,290.83 387.04,290.20"/>
    </edge>
    <edge id=":17546846_1" function="internal">
        <lane id=":17546846_1_0" index="0" disallow="tram rail_urban rail rail_electric rail_fast ship container cable_car subway aircraft wheelchair scooter drone" speed="3.93" length="2.17" shape="388.59,287.40 389.13,287.61 389.63,287.63 390.11,287.45 390.55,287.08"/>
    </edge>
    <edge id=":17546856_0" function="internal">
        <lane id=":17546856_0_0" index="0" disallow="tram rail_urban rail rail_electric rail_fast ship container cable_car subway aircraft wheelchair scooter drone" speed="6.07" length="7.94" shape="51.74,240.97 49.63,240.39 48.24,239.28 47.56,237.63 47.60,235.44"/>
    </edge>
    <edge id=":17546856_1" function="internal">
        <lane id=":17546856_1_0" index="0" disallow="tram rail_urban rail rail_electric rail_fast ship container cable_car subway aircraft wheelchair scooter drone" speed="3.65" length="4.67" shape="51.74,240.97 50.65,240.02 50.35,239.18 50.85,238.44 52.14,237.79"/>
    </edge>
    <edge id=":17546856_2" function="internal">
        <lane id=":17546856_2_0" index="0" disallow="tram rail_urban rail rail_electric rail_fast ship container cable_car subway aircraft wheelchair scooter drone" speed="3.90" length="2.65" shape="50.75,235.95 50.74,236.68 50.97,237.23 51.43,237.60 52.14,237.79"/>
    </edge>
    <edge id=":17546856_3" function="internal">
        <lane id=":17546856_3_0" index="0" disallow="tram rail_urban rail rail_electric rail_fast ship container cable_car subway aircraft wheelchair scooter drone" speed="3.65" length="4.67" shape="50.75,235.95 49.77,237.01 48.92,237.28 48.20,236.75 47.60,235.44"/>
    </edge>
    <edge id=":18164861_0" function="internal">
        <lane id=":18164861_0_0" index="0" disallow="tram rail_urban rail rail_electric rail_fast ship container cable_car subway aircraft wheelchair scooter drone" speed="11.11" length="13.94" shape="363.71,281.53 349.92,279.44"/>
    </edge>
    <edge id=":18164861_1" function="internal">
        <lane id=":18164861_1_0" index="0" disallow="tram rail_urban rail rail_electric rail_fast ship container cable_car subway aircraft wheelchair scooter drone" speed="7.17" length="11.48" shape="363.71,281.53 361.41,280.61 360.00,278.74 359.48,275.92 359.86,272.15"/>
    </edge>
    <edge id=":18164861_2" function="internal">
        <lane id=":18164861_2_0" index="0" disallow="tram rail_urban rail rail_electric rail_fast ship container cable_car subway aircraft wheelchair scooter drone" speed="3.65" length="4.67" shape="363.71,281.53 362.65,280.55 362.38,279.69 362.90,278.97 364.21,278.37"/>
    </edge>
    <edge id=":18164861_3" function="internal">
        <lane id=":18164861_3_0" index="0" disallow="tram rail_urban rail rail_electric rail_fast ship container cable_car subway aircraft wheelchair scooter drone" speed="6.59" length="8.93" shape="350.38,276.28 352.75,276.26 354.60,275.47 355.92,273.89 356.72,271.54"/>
    </edge>
    <edge id=":18164861_4" function="internal">
        <lane id=":18164861_4_0" index="0" disallow="tram rail_urban rail rail_electric rail_fast ship container cable_car subway aircraft wheelchair scooter drone" speed="11.11" length="13.99" shape="350.38,276.28 364.21,278.37"/>
    </edge>
    <edge id=":18164861_5" function="internal">
        <lane id=":18164861_5_0" index="0" disallow="tram rail_urban rail rail_electric rail_fast ship container cable_car subway aircraft wheelchair scooter drone" speed="3.65" length="4.67" shape="350.38,276.28 351.45,277.24 351.73,278.09 351.22,278.82 349.92,279.44"/>
    </edge>
    <edge id=":18164862_0" function="internal">
        <lane id=":18164862_0_0" index="0" disallow="tram rail_urban rail rail_electric rail_fast ship container cable_car subway aircraft wheelchair scooter drone" speed="11.11" length="14.32" shape="300.82,272.41 286.64,270.50"/>
    </edge>
    <edge id=":18164862_1" function="internal">
        <lane id=":18164862_1_0" index="0" disallow="tram rail_urban rail rail_electric rail_fast ship container cable_car subway aircraft wheelchair scooter drone" speed="3.65" length="4.67" shape="300.82,272.41 299.75,271.45 299.47,270.60 299.98,269.87 301.28,269.25"/>
    </edge>
    <edge id=":18164862_2" function="internal">
        <lane id=":18164862_2_0" index="0" disallow="tram rail_urban rail rail_electric rail_fast ship container cable_car subway aircraft wheelchair scooter drone" speed="6.51" length="9.03" shape="296.53,262.91 296.53,265.39 297.32,267.27 298.90,268.55 301.28,269.25"/>
    </edge>
    <edge id=":18164862_3" function="internal">
        <lane id=":18164862_3_0" index="0" disallow="tram rail_urban rail rail_electric rail_fast ship container cable_car subway aircraft wheelchair scooter drone" speed="7.37" length="11.73" shape="293.36,262.46 292.47,266.24 291.06,268.84 289.11,270.26 286.64,270.50"/>
    </edge>
    <edge id=":18164862_4" function="internal">
        <lane id=":18164862_4_0" index="0" disallow="tram rail_urban rail rail_electric rail_fast ship container cable_car subway aircraft wheelchair scooter drone" speed="11.11" length="14.37" shape="287.04,267.32 301.28,269.25"/>
    </edge>
    <edge id=":18164862_5" function="internal">
        <lane id=":18164862_5_0" index="0" disallow="tram rail_urban rail rail_electric rail_fast ship container cable_car subway aircraft wheelchair scooter drone" speed="3.65" length="4.67" shape="287.04,267.32 288.13,268.27 288.43,269.11 287.93,269.86 286.64,270.50"/>
    </edge>
    <edge id=":18164863_0" function="internal">
        <lane id=":18164863_0_0" index="0" disallow="tram rail_urban rail rail_electric rail_fast ship container cable_car subway aircraft wheelchair scooter drone" speed="11.11" length="14.42" shape="233.49,263.76 219.19,261.91"/>
    </edge>
    <edge id=":18164863_1" function="internal">
        <lane id=":18164863_1_0" index="0" disallow="tram rail_urban rail rail_electric rail_fast ship container cable_car subway aircraft wheelchair scooter drone" speed="8.00" length="14.20" shape="233.49,263.76 229.74,262.73 227.22,260.75 225.93,257.81 225.87,253.91"/>
    </edge>
    <edge id=":18164863_2" function="internal">
        <lane id=":18164863_2_0" index="0" disallow="tram rail_urban rail rail_electric rail_fast ship container cable_car subway aircraft wheelchair scooter drone" speed="3.65" length="4.67" shape="233.49,263.76 232.40,262.82 232.11,261.97 232.60,261.23 233.90,260.59"/>
    </edge>
    <edge id=":18164863_3" function="internal">
        <lane id=":18164863_3_0" index="0" disallow="tram rail_urban rail rail_electric rail_fast ship container cable_car subway aircraft wheelchair scooter drone" speed="6.51" length="9.04" shape="229.05,254.32 229.09,256.80 229.91,258.67 231.51,259.93 233.90,260.59"/>
    </edge>
    <edge id=":18164863_4" function="internal">
        <lane id=":18164863_4_0" index="0" disallow="tram rail_urban rail rail_electric rail_fast ship container cable_car subway aircraft wheelchair scooter drone" speed="7.99" length="14.21" shape="229.05,254.32 228.01,258.07 226.03,260.59 223.08,261.87 219.19,261.91"/>
    </edge>
    <edge id=":18164863_5" function="internal">
        <lane id=":18164863_5_0" index="0" disallow="tram rail_urban rail rail_electric rail_fast ship container cable_car subway aircraft wheelchair scooter drone" speed="3.65" length="4.67" shape="229.05,254.32 228.10,255.41 227.26,255.70 226.52,255.20 225.87,253.91"/>
    </edge>
    <edge id=":18164863_6" function="internal">
        <lane id=":18164863_6_0" index="0" disallow="tram rail_urban rail rail_electric rail_fast ship container cable_car subway aircraft wheelchair scooter drone" speed="6.50" length="9.03" shape="219.61,258.74 222.08,258.71 223.95,257.90 225.22,256.30 225.87,253.91"/>
    </edge>
    <edge id=":18164863_7" function="internal">
        <lane id=":18164863_7_0" index="0" disallow="tram rail_urban rail rail_electric rail_fast ship container cable_car subway aircraft wheelchair scooter drone" speed="11.11" length="14.41" shape="219.61,258.74 233.90,260.59"/>
    </edge>
    <edge id=":18164863_8" function="internal">
        <lane id=":18164863_8_0" index="0" disallow="tram rail_urban rail rail_electric rail_fast ship container cable_car subway aircraft wheelchair scooter drone" speed="3.65" length="4.67" shape="219.61,258.74 220.69,259.69 220.98,260.54 220.48,261.28 219.19,261.91"/>
    </edge>
    <edge id=":18164864_0" function="internal">
        <lane id=":18164864_0_0" index="0" disallow="tram rail_urban rail rail_electric rail_fast ship container cable_car subway aircraft wheelchair scooter drone" speed="11.11" length="14.29" shape="164.22,254.67 150.04,252.89"/>
    </edge>
    <edge id=":18164864_1" function="internal">
        <lane id=":18164864_1_0" index="0" disallow="tram rail_urban rail rail_electric rail_fast ship container cable_car subway aircraft wheelchair scooter drone" speed="8.00" length="4.01" shape="164.22,254.67 160.49,253.63 160.38,253.54"/>
    </edge>
    <edge id=":18164864_2" function="internal">
        <lane id=":18164864_2_0" index="0" disallow="tram rail_urban rail rail_electric rail_fast ship container cable_car subway aircraft wheelchair scooter drone" speed="3.65" length="1.44" shape="164.22,254.67 163.13,253.72"/>
    </edge>
    <edge id=":18164864_9" function="internal">
        <lane id=":18164864_9_0" index="0" disallow="tram rail_urban rail rail_electric rail_fast ship container cable_car subway aircraft wheelchair scooter drone" speed="8.00" length="10.13" shape="160.38,253.54 157.99,251.64 156.70,248.72 156.64,244.85"/>
    </edge>
    <edge id=":18164864_10" function="internal">
        <lane id=":18164864_10_0" index="0" disallow="tram rail_urban rail rail_electric rail_fast ship container cable_car subway aircraft wheelchair scooter drone" speed="3.65" length="3.23" shape="163.13,253.72 162.84,252.88 163.34,252.14 164.64,251.50"/>
    </edge>
    <edge id=":18164864_3" function="internal">
        <lane id=":18164864_3_0" index="0" disallow="tram rail_urban rail rail_electric rail_fast ship container cable_car subway aircraft wheelchair scooter drone" speed="6.51" length="8.99" shape="159.81,245.25 159.85,247.71 160.67,249.57 162.26,250.84 164.64,251.50"/>
    </edge>
    <edge id=":18164864_4" function="internal">
        <lane id=":18164864_4_0" index="0" disallow="tram rail_urban rail rail_electric rail_fast ship container cable_car subway aircraft wheelchair scooter drone" speed="8.01" length="14.13" shape="159.81,245.25 158.79,248.98 156.82,251.50 153.90,252.80 150.04,252.89"/>
    </edge>
    <edge id=":18164864_5" function="internal">
        <lane id=":18164864_5_0" index="0" disallow="tram rail_urban rail rail_electric rail_fast ship container cable_car subway aircraft wheelchair scooter drone" speed="3.65" length="4.67" shape="159.81,245.25 158.87,246.34 158.02,246.63 157.28,246.14 156.64,244.85"/>
    </edge>
    <edge id=":18164864_6" function="internal">
        <lane id=":18164864_6_0" index="0" disallow="tram rail_urban rail rail_electric rail_fast ship container cable_car subway aircraft wheelchair scooter drone" speed="6.51" length="9.00" shape="150.41,249.72 152.88,249.66 154.73,248.83 155.99,247.22 156.64,244.85"/>
    </edge>
    <edge id=":18164864_7" function="internal">
        <lane id=":18164864_7_0" index="0" disallow="tram rail_urban rail rail_electric rail_fast ship container cable_car subway aircraft wheelchair scooter drone" speed="11.11" length="14.33" shape="150.41,249.72 164.64,251.50"/>
    </edge>
    <edge id=":18164864_8" function="internal">
        <lane id=":18164864_8_0" index="0" disallow="tram rail_urban rail rail_electric rail_fast ship container cable_car subway aircraft wheelchair scooter drone" speed="3.65" length="1.44" shape="150.41,249.72 151.51,250.65"/>
    </edge>
    <edge id=":18164864_11" function="internal">
        <lane id=":18164864_11_0" index="0" disallow="tram rail_urban rail rail_electric rail_fast ship container cable_car subway aircraft wheelchair scooter drone" speed="3.65" length="3.23" shape="151.51,250.65 151.81,251.49 151.32,252.24 150.04,252.89"/>
    </edge>
    <edge id=":18164866_0" function="internal">
        <lane id=":18164866_0_0" index="0" disallow="tram rail_urban rail rail_electric rail_fast ship container cable_car subway aircraft wheelchair scooter drone" speed="11.11" length="13.72" shape="113.18,149.80 111.33,151.50 109.84,154.12 108.70,157.64 107.91,162.06"/>
    </edge>
    <edge id=":18164866_1" function="internal">
        <lane id=":18164866_1_0" index="0" disallow="tram rail_urban rail rail_electric rail_fast ship container cable_car subway aircraft wheelchair scooter drone" speed="11.11" length="16.14" shape="113.18,149.80 99.39,158.19"/>
    </edge>
    <edge id=":18164866_2" function="internal">
        <lane id=":18164866_2_0" index="0" disallow="tram rail_urban rail rail_electric rail_fast ship container cable_car subway aircraft wheelchair scooter drone" speed="3.65" length="4.67" shape="113.18,149.80 111.74,149.75 110.98,149.28 110.90,148.39 111.50,147.08"/>
    </edge>
    <edge id=":18164866_3" function="internal">
        <lane id=":18164866_3_0" index="0" disallow="tram rail_urban rail rail_electric rail_fast ship container cable_car subway aircraft wheelchair scooter drone" speed="11.11" length="16.10" shape="97.74,155.45 111.50,147.08"/>
    </edge>
    <edge id=":18164866_4" function="internal">
        <lane id=":18164866_4_0" index="0" disallow="tram rail_urban rail rail_electric rail_fast ship container cable_car subway aircraft wheelchair scooter drone" speed="7.38" length="17.99" shape="97.74,155.45 102.84,153.17 106.23,153.52 107.92,156.48 107.91,162.06"/>
    </edge>
    <edge id=":18164866_5" function="internal">
        <lane id=":18164866_5_0" index="0" disallow="tram rail_urban rail rail_electric rail_fast ship container cable_car subway aircraft wheelchair scooter drone" speed="3.65" length="4.67" shape="97.74,155.45 99.18,155.52 99.94,156.00 100.01,156.89 99.39,158.19"/>
    </edge>
    <edge id=":18164866_6" function="internal">
        <lane id=":18164866_6_0" index="0" disallow="tram rail_urban rail rail_electric rail_fast ship container cable_car subway aircraft wheelchair scooter drone" speed="5.54" length="9.45" shape="104.74,161.66 104.74,158.73 103.85,157.18 102.07,157.00 99.39,158.19"/>
    </edge>
    <edge id=":18164866_7" function="internal">
        <lane id=":18164866_7_0" index="0" disallow="tram rail_urban rail rail_electric rail_fast ship container cable_car subway aircraft wheelchair scooter drone" speed="11.11" length="16.56" shape="104.74,161.66 105.69,156.53 107.13,152.38 109.07,149.23 111.50,147.08"/>
    </edge>
    <edge id=":18164866_8" function="internal">
        <lane id=":18164866_8_0" index="0" disallow="tram rail_urban rail rail_electric rail_fast ship container cable_car subway aircraft wheelchair scooter drone" speed="3.65" length="4.67" shape="104.74,161.66 105.68,160.57 106.52,160.28 107.27,160.77 107.91,162.06"/>
    </edge>
    <edge id=":18164867_0" function="internal">
        <lane id=":18164867_0_0" index="0" disallow="tram rail_urban rail rail_electric rail_fast ship container cable_car subway aircraft wheelchair scooter drone" speed="5.82" length="9.14" shape="170.79,122.55 170.13,119.96 168.85,118.56 166.97,118.34 164.48,119.31"/>
    </edge>
    <edge id=":18164867_1" function="internal">
        <lane id=":18164867_1_0" index="0" disallow="tram rail_urban rail rail_electric rail_fast ship container cable_car subway aircraft wheelchair scooter drone" speed="7.51" length="15.96" shape="170.79,122.55 170.91,117.88 172.52,114.96 175.62,113.78 180.22,114.35"/>
    </edge>
    <edge id=":18164867_2" function="internal">
        <lane id=":18164867_2_0" index="0" disallow="tram rail_urban rail rail_electric rail_fast ship container cable_car subway aircraft wheelchair scooter drone" speed="3.65" length="4.67" shape="170.79,122.55 171.45,121.27 172.20,120.78 173.04,121.09 173.97,122.19"/>
    </edge>
    <edge id=":18164867_3" function="internal">
        <lane id=":18164867_3_0" index="0" disallow="tram rail_urban rail rail_electric rail_fast ship container cable_car subway aircraft wheelchair scooter drone" speed="5.86" length="9.20" shape="179.38,117.44 176.74,117.12 174.96,117.80 174.04,119.49 173.97,122.19"/>
    </edge>
    <edge id=":18164867_4" function="internal">
        <lane id=":18164867_4_0" index="0" disallow="tram rail_urban rail rail_electric rail_fast ship container cable_car subway aircraft wheelchair scooter drone" speed="11.11" length="15.35" shape="179.38,117.44 175.63,116.84 171.76,116.97 167.97,117.81 164.48,119.31"/>
    </edge>
    <edge id=":18164867_5" function="internal">
        <lane id=":18164867_5_0" index="0" disallow="tram rail_urban rail rail_electric rail_fast ship container cable_car subway aircraft wheelchair scooter drone" speed="3.65" length="4.67" shape="179.38,117.44 178.43,116.36 178.25,115.48 178.85,114.81 180.22,114.35"/>
    </edge>
    <edge id=":18164867_6" function="internal">
        <lane id=":18164867_6_0" index="0" disallow="tram rail_urban rail rail_electric rail_fast ship container cable_car subway aircraft wheelchair scooter drone" speed="11.11" length="17.73" shape="162.92,116.52 166.78,114.97 171.39,114.03 176.09,113.80 180.22,114.35"/>
    </edge>
    <edge id=":18164867_7" function="internal">
        <lane id=":18164867_7_0" index="0" disallow="tram rail_urban rail rail_electric rail_fast ship container cable_car subway aircraft wheelchair scooter drone" speed="7.48" length="16.00" shape="162.92,116.52 167.28,114.82 170.58,115.20 172.81,117.66 173.97,122.19"/>
    </edge>
    <edge id=":18164867_8" function="internal">
        <lane id=":18164867_8_0" index="0" disallow="tram rail_urban rail rail_electric rail_fast ship container cable_car subway aircraft wheelchair scooter drone" speed="3.65" length="4.67" shape="162.92,116.52 164.36,116.63 165.10,117.13 165.14,118.03 164.48,119.31"/>
    </edge>
    <edge id=":18164869_0" function="internal">
        <lane id=":18164869_0_0" index="0" disallow="tram rail_urban rail rail_electric rail_fast ship container cable_car subway aircraft wheelchair scooter drone" speed="6.55" length="9.08" shape="250.78,127.86 248.31,127.93 246.45,128.78 245.18,130.40 244.52,132.82"/>
    </edge>
    <edge id=":18164869_1" function="internal">
        <lane id=":18164869_1_0" index="0" disallow="tram rail_urban rail rail_electric rail_fast ship container cable_car subway aircraft wheelchair scooter drone" speed="11.11" length="14.40" shape="250.78,127.86 236.48,126.18"/>
    </edge>
    <edge id=":18164869_2" function="internal">
        <lane id=":18164869_2_0" index="0" disallow="tram rail_urban rail rail_electric rail_fast ship container cable_car subway aircraft wheelchair scooter drone" speed="3.65" length="4.67" shape="250.78,127.86 249.68,126.93 249.38,126.09 249.87,125.34 251.15,124.68"/>
    </edge>
    <edge id=":18164869_3" function="internal">
        <lane id=":18164869_3_0" index="0" disallow="tram rail_urban rail rail_electric rail_fast ship container cable_car subway aircraft wheelchair scooter drone" speed="11.11" length="14.40" shape="236.86,123.01 251.15,124.68"/>
    </edge>
    <edge id=":18164869_4" function="internal">
        <lane id=":18164869_4_0" index="0" disallow="tram rail_urban rail rail_electric rail_fast ship container cable_car subway aircraft wheelchair scooter drone" speed="7.98" length="14.23" shape="236.86,123.01 240.63,124.01 243.17,125.98 244.46,128.91 244.52,132.82"/>
    </edge>
    <edge id=":18164869_5" function="internal">
        <lane id=":18164869_5_0" index="0" disallow="tram rail_urban rail rail_electric rail_fast ship container cable_car subway aircraft wheelchair scooter drone" speed="3.65" length="4.67" shape="236.86,123.01 237.95,123.94 238.26,124.78 237.77,125.53 236.48,126.18"/>
    </edge>
    <edge id=":18164869_6" function="internal">
        <lane id=":18164869_6_0" index="0" disallow="tram rail_urban rail rail_electric rail_fast ship container cable_car subway aircraft wheelchair scooter drone" speed="6.49" length="9.03" shape="241.35,132.41 241.31,129.93 240.49,128.07 238.88,126.82 236.48,126.18"/>
    </edge>
    <edge id=":18164869_7" function="internal">
        <lane id=":18164869_7_0" index="0" disallow="tram rail_urban rail rail_electric rail_fast ship container cable_car subway aircraft wheelchair scooter drone" speed="8.03" length="14.20" shape="241.35,132.41 242.38,128.65 244.36,126.11 247.28,124.79 251.15,124.68"/>
    </edge>
    <edge id=":18164869_8" function="internal">
        <lane id=":18164869_8_0" index="0" disallow="tram rail_urban rail rail_electric rail_fast ship container cable_car subway aircraft wheelchair scooter drone" speed="3.65" length="4.67" shape="241.35,132.41 242.29,131.32 243.14,131.03 243.88,131.52 244.52,132.82"/>
    </edge>
    <edge id=":18164870_0" function="internal">
        <lane id=":18164870_0_0" index="0" disallow="tram rail_urban rail rail_electric rail_fast ship container cable_car subway aircraft wheelchair scooter drone" speed="6.55" length="9.01" shape="320.11,135.96 317.69,136.03 315.84,136.87 314.58,138.50 313.89,140.89"/>
    </edge>
    <edge id=":18164870_1" function="internal">
        <lane id=":18164870_1_0" index="0" disallow="tram rail_urban rail rail_electric rail_fast ship container cable_car subway aircraft wheelchair scooter drone" speed="11.11" length="14.21" shape="320.11,135.96 305.99,134.31"/>
    </edge>
    <edge id=":18164870_2" function="internal">
        <lane id=":18164870_2_0" index="0" disallow="tram rail_urban rail rail_electric rail_fast ship container cable_car subway aircraft wheelchair scooter drone" speed="3.65" length="4.67" shape="320.11,135.96 319.01,135.02 318.71,134.18 319.20,133.44 320.49,132.78"/>
    </edge>
    <edge id=":18164870_3" function="internal">
        <lane id=":18164870_3_0" index="0" disallow="tram rail_urban rail rail_electric rail_fast ship container cable_car subway aircraft wheelchair scooter drone" speed="11.11" length="14.22" shape="306.36,131.13 320.49,132.78"/>
    </edge>
    <edge id=":18164870_4" function="internal">
        <lane id=":18164870_4_0" index="0" disallow="tram rail_urban rail rail_electric rail_fast ship container cable_car subway aircraft wheelchair scooter drone" speed="7.23" length="11.62" shape="306.36,131.13 308.73,131.96 310.25,133.78 310.91,136.61 310.72,140.44"/>
    </edge>
    <edge id=":18164870_5" function="internal">
        <lane id=":18164870_5_0" index="0" disallow="tram rail_urban rail rail_electric rail_fast ship container cable_car subway aircraft wheelchair scooter drone" speed="3.65" length="4.67" shape="306.36,131.13 307.46,132.07 307.77,132.91 307.28,133.66 305.99,134.31"/>
    </edge>
    <edge id=":18164872_0" function="internal">
        <lane id=":18164872_0_0" index="0" disallow="tram rail_urban rail rail_electric rail_fast ship container cable_car subway aircraft wheelchair scooter drone" speed="6.82" length="10.46" shape="436.80,146.35 439.58,147.11 441.40,148.58 442.25,150.76 442.14,153.65"/>
        <lane id=":18164872_0_1" index="1" disallow="tram rail_urban rail rail_electric rail_fast ship container cable_car subway aircraft wheelchair scooter drone" speed="6.02" length="7.93" shape="436.80,146.35 438.19,146.92 439.03,148.24 439.29,150.28 438.99,153.06"/>
    </edge>
    <edge id=":18164872_2" function="internal">
        <lane id=":18164872_2_0" index="0" disallow="tram rail_urban rail rail_electric rail_fast ship container cable_car subway aircraft wheelchair scooter drone" speed="3.65" length="4.67" shape="436.80,146.35 437.89,147.29 438.19,148.13 437.69,148.88 436.40,149.52"/>
    </edge>
    <edge id=":18164874_0" function="internal">
        <lane id=":18164874_0_0" index="0" disallow="tram rail_urban rail rail_electric rail_fast ship container cable_car subway aircraft wheelchair scooter drone" speed="9.06" length="6.41" shape="422.55,259.25 422.15,261.09 421.65,262.31 420.80,263.33 419.36,264.54"/>
    </edge>
    <edge id=":18164874_1" function="internal">
        <lane id=":18164874_1_0" index="0" disallow="tram rail_urban rail rail_electric rail_fast ship container cable_car subway aircraft wheelchair scooter drone" speed="3.65" length="1.44" shape="417.37,262.04 418.81,261.92"/>